8
Etano eclipsado com simetria perfeita D3h alinhada aos eixos
C 0.000000 0.000000 -0.770000
C 0.000000 0.000000 0.770000
H 0.890139 0.000000 -1.399088
H -0.445070 0.770883 -1.399088
H -0.445070 -0.770883 -1.399088
H 0.890139 0.000000 1.399088
H -0.445070 0.770883 1.399088
H -0.445070 -0.770883 1.399088